LAMMPS (29 Aug 2024)
# Compute elastic constant tensor for a crystal
#
# Written by Aidan Thompson (Sandia, athomps@sandia.gov)
#
#  This script uses the following three include append files.
#
#   init.mod      (must be modified for different crystal structures)
# 	       	  Define units, deformation parameters and initial
#		  configuration of the atoms and simulation cell.
#
#
#   potential.mod    (must be modified for different pair styles)
# 		     Define pair style and other attributes
#		     not stored in restart append file
#
#
#   displace.mod    (displace.mod should not need to be modified)
# 		    Perform positive and negative box displacements
# 		    It uses the resultant changes
#		    in stress to compute one
# 		    row of the elastic stiffness tensor
#
#		    Inputs variables:
#		    	   dir = the Voigt deformation component
#		    		    (1,2,3,4,5,6)
#		    Global constants:
#       	    	   up = the deformation magnitude (strain units)
#       		   cfac = conversion from LAMMPS pressure units to
#               	   output units for elastic constants
#
#
#  To run this on a different system, it should only be necessary to
#  modify the append files init.mod and potential.mod. In order to calculate
#  the elastic constants correctly, care must be taken to specify
#  the correct units in init.mod (units, cfac and cunits). It is also
#  important to verify that the minimization of energy w.r.t atom
#  positions in the deformed cell is fully converged.
#  One indication of this is that the elastic constants are insensitive
#  the final max and two-norm forces reported in the log append file. If you know
#  that minimization is not required, you can set maxiter = 0.0 in
#  init.mod.
#

include init4.mod
# NOTE: This script can be modified for different atomic structures,
# units, etc. See in.elastic for more info.
#

# Define the finite deformation size. Try several values of this
# variable to verify that results do not depend on it.
variable up equal 1.0e-6

# Define the amount of random jiggle for atoms
# This prevents atoms from staying on saddle points
variable atomjiggle equal 1.0e-5

# Uncomment one of these blocks, depending on what units
# you are using in LAMMPS and for output

# metal units, elastic constants in eV/A^3
#units		metal
#variable cfac equal 6.2414e-7
#variable cunits string eV/A^3

# metal units, elastic constants in GPa
units		metal
variable cfac equal 1.0e-4
variable cunits string GPa

# real units, elastic constants in GPa
#units		real
#variable cfac equal 1.01325e-4
#variable cunits string GPa

# Define minimization parameters
variable etol equal 0.0
variable ftol equal 1.0e-10
variable maxiter equal 100000
variable maxeval equal 100000
variable dmax equal 1.0e-2

# generate the box and atom positions using a diamond lattice
variable	a equal 3.2

boundary	p p p

lattice         bcc $a
lattice         bcc 3.2
Lattice spacing in x,y,z = 3.2 3.2 3.2
region		box prism 0 10.0 0 10.0 0 10.0 0.0 0.0 0.0
create_box	4 box
Created triclinic box = (0 0 0) to (32 32 32) with tilt (0 0 0)

create_atoms	1 box
Created 2000 atoms
set		type 1 type/ratio 4 0.90 $r
set		type 1 type/ratio 4 0.90 98421
Setting atom values ...
  1800 settings made for type/ratio
set     type 1 type/ratio 2 0.3333333333 $r
set     type 1 type/ratio 2 0.3333333333 98421
Setting atom values ...
  66 settings made for type/ratio
set     type 1 type/ratio 3 0.5 $r
set     type 1 type/ratio 3 0.5 98421
Setting atom values ...
  67 settings made for type/ratio

# Need to set mass to something, just to satisfy LAMMPS
mass		1 92.91  # Nb
mass        2 95.96  # Mo
mass        3 180.95 # Ta
mass		4 183.84 # W

include potential4.mod
# NOTE: This script can be modified for different pair styles
# See in.elastic for more info.

# Choose potential
pair_style	eam/alloy
pair_coeff	* * ../NbMoTaW_Zhou04.eam.alloy Nb Mo Ta W
Reading eam/alloy potential file ../NbMoTaW_Zhou04.eam.alloy with DATE: 2018-03-30

# Setup neighbor style
neighbor 1.0 nsq
neigh_modify once no every 1 delay 0 check yes

# Setup minimization style
min_style	     cg
min_modify	     dmax 0.01 line quadratic

# Setup output
thermo		1
thermo_style custom step temp pe press pxx pyy pzz pxy pxz pyz lx ly lz vol
thermo_modify norm no

compute		mperatom all property/atom mass
compute		matoms all reduce sum c_mperatom
variable	totalm equal c_matoms

thermo		100

# Compute initial state
fix 3 all box/relax  aniso 0.0
minimize 0 1e-10 100000 100000
 (../min.cpp:219)
Step          Temp          PotEng         Press           Pxx            Pyy            Pzz            Pxy            Pxz            Pyz             Lx             Ly             Lz           Volume
0   0             -17246.154     -73406.037     -73405.991     -73405.468     -73406.653      0.31534992    -1.8066049     -18.167345      32             32             32             32768
Averages over the last 8 of 16 rows, steps 800 to 1452:
Temp PotEng Press Pxx Pyy Pzz Pxy Pxz Pyz Lx Ly Lz Volume
0 -17270.5 -29.4104 -40.1945 -40.0124 -8.02431 32.9601 16.0445 -38.8153 31.726 31.726 31.7257 31933.2
Loop time of 1.26076 on 8 procs for 1452 steps with 2000 atoms

Minimization stats:
  Stopping criterion = force tolerance
  Energy initial, next-to-last, final =
  Force two-norm initial, final = 2600.3782 8.0724999e-11
  Force max component initial, final = 1501.326 3.1304716e-11
  Final line search alpha, max atom move = 1 3.1304716e-11
  Iterations, force evaluations = 1452 2259

write_data	0.90.data
System init for write_data ...

# variable	totalv0 equal lx*ly*lz

thermo		100
thermo_style	custom step time etotal press pxx pyy pzz pxy pyz pxz lx ly lz v_totalm
run		0
Step          Time          TotEng         Press           Pxx            Pyy            Pzz            Pxy            Pyz            Pxz             Lx             Ly             Lz          v_totalm
1452   0             -17270.491      9.6255167e-11  1.5571947e-09 -1.9678834e-10 -1.0716409e-09  33.614845     -39.880544      15.882658      31.725833      31.725837      31.725915      355592.39
Loop time of 2.035e-06 on 8 procs for 0 steps with 2000 atoms

variable tmp equal pxx
variable pxx0 equal 1.55719470242397e-09
variable tmp equal pyy
variable pyy0 equal -1.96788341515118e-10
variable tmp equal pzz
variable pzz0 equal -1.07164085977254e-09
variable tmp equal pyz
variable pyz0 equal -39.8805436731508
variable tmp equal pxz
variable pxz0 equal 15.8826584694563
variable tmp equal pxy
variable pxy0 equal 33.6148446063858

variable tmp equal lx
variable lx0 equal 31.7258333898295
variable tmp equal ly
variable ly0 equal 31.7258365834915
variable tmp equal lz
variable lz0 equal 31.7259146282816

# These formulas define the derivatives w.r.t. strain components
# Constants uses $, variables use v_
variable d1 equal -(v_pxx1-1.55719470242397e-09)/(v_delta/v_len0)*0.0001
variable d2 equal -(v_pyy1--1.96788341515118e-10)/(v_delta/v_len0)*0.0001
variable d3 equal -(v_pzz1--1.07164085977254e-09)/(v_delta/v_len0)*0.0001
variable d4 equal -(v_pyz1--39.8805436731508)/(v_delta/v_len0)*0.0001
variable d5 equal -(v_pxz1-15.8826584694563)/(v_delta/v_len0)*0.0001
variable d6 equal -(v_pxy1-33.6148446063858)/(v_delta/v_len0)*0.0001

displace_atoms all random 1e-05 1e-05 1e-05 87287 units box
Displacing atoms ...

# Write restart
unfix 3
write_restart restart.equil
System init for write_restart ...

# uxx Perturbation

variable dir equal 1
include displace.mod
# NOTE: This script should not need to be
# modified. See in.elastic for more info.
#
# Find which reference length to use

variable len0 equal 31.7258333898295

# Reset box and simulation parameters

clear
box tilt large

The 'box' command has been removed and will be ignored

read_restart restart.equil
Reading restart file ...
  restart file = 29 Aug 2024, LAMMPS = 29 Aug 2024
  restoring atom style atomic from restart
  triclinic box = (0.13708331 0.13708171 0.13704269) to (31.862917 31.862918 31.862957) with tilt (0 0 0)
  pair style eam/alloy stores no restart info
  2000 atoms
  read_restart CPU = 0.001 seconds
include potential4.mod
# NOTE: This script can be modified for different pair styles
# See in.elastic for more info.

# Choose potential
pair_style	eam/alloy
pair_coeff	* * ../NbMoTaW_Zhou04.eam.alloy Nb Mo Ta W
Reading eam/alloy potential file ../NbMoTaW_Zhou04.eam.alloy with DATE: 2018-03-30

# Setup neighbor style
neighbor 1.0 nsq
neigh_modify once no every 1 delay 0 check yes

# Setup minimization style
min_style	     cg
min_modify	     dmax 0.01 line quadratic

# Setup output
thermo		1
thermo_style custom step temp pe press pxx pyy pzz pxy pxz pyz lx ly lz vol
thermo_modify norm no

# Negative deformation

variable delta equal -1e-06*31.7258333898295
variable deltaxy equal -1e-06*xy
variable deltaxz equal -1e-06*xz
variable deltayz equal -1e-06*yz
change_box all x delta 0 -3.17258333898295e-05 xy delta 0 xz delta 0 remap units box
Changing box ...
  triclinic box = (0.13708331 0.13708171 0.13704269) to (31.862885 31.862918 31.862957) with tilt (0 0 0)
  triclinic box = (0.13708331 0.13708171 0.13704269) to (31.862885 31.862918 31.862957) with tilt (0 0 0)
  triclinic box = (0.13708331 0.13708171 0.13704269) to (31.862885 31.862918 31.862957) with tilt (0 0 0)

# Relax atoms positions

minimize 0 1e-10 100000 100000
Step          Temp          PotEng         Press           Pxx            Pyy            Pzz            Pxy            Pxz            Pyz             Lx             Ly             Lz           Volume
1452   0             -17270.491      2.9873762      4.9794481      1.9997787      1.9829019      33.60991       15.888785     -39.896429      31.725802      31.725837      31.725915      31933.009
Loop time of 0.0566009 on 8 procs for 54 steps with 2000 atoms

Minimization stats:
  Stopping criterion = force tolerance
  Energy initial, next-to-last, final =
  Force two-norm initial, final = 0.0088878928 9.3768099e-11
  Force max component initial, final = 0.00031603715 4.6467485e-12
  Final line search alpha, max atom move = 1 4.6467485e-12
  Iterations, force evaluations = 54 108

# Obtain new stress tensor

variable tmp equal pxx
variable pxx1 equal 4.94333317766768
variable tmp equal pyy
variable pyy1 equal 1.98246105046908
variable tmp equal pzz
variable pzz1 equal 1.98217927659733
variable tmp equal pxy
variable pxy1 equal 33.614580318218
variable tmp equal pxz
variable pxz1 equal 15.8825387180399
variable tmp equal pyz
variable pyz1 equal -39.8805684247919

# Compute elastic constant from pressure tensor

variable C1neg equal 494.333317611048
variable C2neg equal 198.246105066587
variable C3neg equal 198.217927766897
variable C4neg equal -0.00247516411064907
variable C5neg equal -0.011975141640086
variable C6neg equal -0.0264288167798554

# Reset box and simulation parameters

clear
box tilt large

The 'box' command has been removed and will be ignored

read_restart restart.equil
Reading restart file ...
  restart file = 29 Aug 2024, LAMMPS = 29 Aug 2024
  restoring atom style atomic from restart
  triclinic box = (0.13708331 0.13708171 0.13704269) to (31.862917 31.862918 31.862957) with tilt (0 0 0)
  pair style eam/alloy stores no restart info
  2000 atoms
  read_restart CPU = 0.000 seconds
include potential4.mod
# NOTE: This script can be modified for different pair styles
# See in.elastic for more info.

# Choose potential
pair_style	eam/alloy
pair_coeff	* * ../NbMoTaW_Zhou04.eam.alloy Nb Mo Ta W
Reading eam/alloy potential file ../NbMoTaW_Zhou04.eam.alloy with DATE: 2018-03-30

# Setup neighbor style
neighbor 1.0 nsq
neigh_modify once no every 1 delay 0 check yes

# Setup minimization style
min_style	     cg
min_modify	     dmax 0.01 line quadratic

# Setup output
thermo		1
thermo_style custom step temp pe press pxx pyy pzz pxy pxz pyz lx ly lz vol
thermo_modify norm no

# Positive deformation

variable delta equal 1e-06*31.7258333898295
variable deltaxy equal 1e-06*xy
variable deltaxz equal 1e-06*xz
variable deltayz equal 1e-06*yz
change_box all x delta 0 3.17258333898295e-05 xy delta 0 xz delta 0 remap units box
Changing box ...
  triclinic box = (0.13708331 0.13708171 0.13704269) to (31.862948 31.862918 31.862957) with tilt (0 0 0)
  triclinic box = (0.13708331 0.13708171 0.13704269) to (31.862948 31.862918 31.862957) with tilt (0 0 0)
  triclinic box = (0.13708331 0.13708171 0.13704269) to (31.862948 31.862918 31.862957) with tilt (0 0 0)

# Relax atoms positions

minimize 0 1e-10 100000 100000
Step          Temp          PotEng         Press           Pxx            Pyy            Pzz            Pxy            Pxz            Pyz             Lx             Ly             Lz           Volume
1452   0             -17270.491     -2.9677016     -4.9399659     -1.9730476     -1.9900914      33.609835      15.888692     -39.896247      31.725865      31.725837      31.725915      31933.073
Loop time of 0.0566882 on 8 procs for 54 steps with 2000 atoms

Minimization stats:
  Stopping criterion = force tolerance
  Energy initial, next-to-last, final =
  Force two-norm initial, final = 0.0088855515 9.6933888e-11
  Force max component initial, final = 0.00031598434 4.7591084e-12
  Final line search alpha, max atom move = 1 4.7591084e-12
  Iterations, force evaluations = 54 108

# Obtain new stress tensor

variable tmp equal pe
variable e1 equal -17270.4914913712
variable tmp equal press
variable p1 equal -2.96930766761483
variable tmp equal pxx
variable pxx1 equal -4.94330818578424
variable tmp equal pyy
variable pyy1 equal -1.98244829534394
variable tmp equal pzz
variable pzz1 equal -1.98216652171632
variable tmp equal pxy
variable pxy1 equal 33.6151088916256
variable tmp equal pxz
variable pxz1 equal 15.8827782173724
variable tmp equal pyz
variable pyz1 equal -39.8805189210633

# Compute elastic constant from pressure tensor

variable C1pos equal 494.330818734143
variable C2pos equal 198.244829514715
variable C3pos equal 198.216652064468
variable C4pos equal -0.00247520874978591
variable C5pos equal -0.0119747916098589
variable C6pos equal -0.0264285239801154

# Combine positive and negative

variable C11 equal 0.5*(494.333317611048+494.330818734143)
variable C21 equal 0.5*(198.246105066587+198.244829514715)
variable C31 equal 0.5*(198.217927766897+198.216652064468)
variable C41 equal 0.5*(-0.00247516411064907+-0.00247520874978591)
variable C51 equal 0.5*(-0.011975141640086+-0.0119747916098589)
variable C61 equal 0.5*(-0.0264288167798554+-0.0264285239801154)

# Delete dir to make sure it is not reused

variable dir delete

# uyy Perturbation

variable dir equal 2
include displace.mod
# NOTE: This script should not need to be
# modified. See in.elastic for more info.
#
# Find which reference length to use

variable len0 equal 31.7258365834915

# Reset box and simulation parameters

clear
box tilt large

The 'box' command has been removed and will be ignored

read_restart restart.equil
Reading restart file ...
  restart file = 29 Aug 2024, LAMMPS = 29 Aug 2024
  restoring atom style atomic from restart
  triclinic box = (0.13708331 0.13708171 0.13704269) to (31.862917 31.862918 31.862957) with tilt (0 0 0)
  pair style eam/alloy stores no restart info
  2000 atoms
  read_restart CPU = 0.000 seconds
include potential4.mod
# NOTE: This script can be modified for different pair styles
# See in.elastic for more info.

# Choose potential
pair_style	eam/alloy
pair_coeff	* * ../NbMoTaW_Zhou04.eam.alloy Nb Mo Ta W
Reading eam/alloy potential file ../NbMoTaW_Zhou04.eam.alloy with DATE: 2018-03-30

# Setup neighbor style
neighbor 1.0 nsq
neigh_modify once no every 1 delay 0 check yes

# Setup minimization style
min_style	     cg
min_modify	     dmax 0.01 line quadratic

# Setup output
thermo		1
thermo_style custom step temp pe press pxx pyy pzz pxy pxz pyz lx ly lz vol
thermo_modify norm no

# Negative deformation

variable delta equal -1e-06*31.7258365834915
variable deltaxy equal -1e-06*xy
variable deltaxz equal -1e-06*xz
variable deltayz equal -1e-06*yz
change_box all y delta 0 -3.17258365834915e-05 yz delta 0 remap units box
Changing box ...
  triclinic box = (0.13708331 0.13708171 0.13704269) to (31.862917 31.862887 31.862957) with tilt (0 0 0)
  triclinic box = (0.13708331 0.13708171 0.13704269) to (31.862917 31.862887 31.862957) with tilt (0 0 0)

# Relax atoms positions

minimize 0 1e-10 100000 100000
Step          Temp          PotEng         Press           Pxx            Pyy            Pzz            Pxy            Pxz            Pyz             Lx             Ly             Lz           Volume
1452   0             -17270.491      2.9873901      2.0061481      4.9732492      1.9827731      33.609921      15.88891      -39.896407      31.725833      31.725805      31.725915      31933.009
Loop time of 0.0572846 on 8 procs for 54 steps with 2000 atoms

Minimization stats:
  Stopping criterion = force tolerance
  Energy initial, next-to-last, final =
  Force two-norm initial, final = 0.0088875908 9.5224713e-11
  Force max component initial, final = 0.00031612306 4.788794e-12
  Final line search alpha, max atom move = 1 4.788794e-12
  Iterations, force evaluations = 54 108

# Obtain new stress tensor

variable tmp equal pxx
variable pxx1 equal 1.98246105042202
variable tmp equal pyy
variable pyy1 equal 4.94327280026609
variable tmp equal pzz
variable pzz1 equal 1.98221663098341
variable tmp equal pxy
variable pxy1 equal 33.6145318108083
variable tmp equal pxz
variable pxz1 equal 15.8829191159473
variable tmp equal pyz
variable pyz1 equal -39.8803937712505

# Compute elastic constant from pressure tensor

variable C1neg equal 198.246104886483
variable C2neg equal 494.327280046288
variable C3neg equal 198.221663205505
variable C4neg equal 0.0149901900293514
variable C5neg equal 0.0260646491000216
variable C6neg equal -0.0312795577499969

# Reset box and simulation parameters

clear
box tilt large

The 'box' command has been removed and will be ignored

read_restart restart.equil
Reading restart file ...
  restart file = 29 Aug 2024, LAMMPS = 29 Aug 2024
  restoring atom style atomic from restart
  triclinic box = (0.13708331 0.13708171 0.13704269) to (31.862917 31.862918 31.862957) with tilt (0 0 0)
  pair style eam/alloy stores no restart info
  2000 atoms
  read_restart CPU = 0.000 seconds
include potential4.mod
# NOTE: This script can be modified for different pair styles
# See in.elastic for more info.

# Choose potential
pair_style	eam/alloy
pair_coeff	* * ../NbMoTaW_Zhou04.eam.alloy Nb Mo Ta W
Reading eam/alloy potential file ../NbMoTaW_Zhou04.eam.alloy with DATE: 2018-03-30

# Setup neighbor style
neighbor 1.0 nsq
neigh_modify once no every 1 delay 0 check yes

# Setup minimization style
min_style	     cg
min_modify	     dmax 0.01 line quadratic

# Setup output
thermo		1
thermo_style custom step temp pe press pxx pyy pzz pxy pxz pyz lx ly lz vol
thermo_modify norm no

# Positive deformation

variable delta equal 1e-06*31.7258365834915
variable deltaxy equal 1e-06*xy
variable deltaxz equal 1e-06*xz
variable deltayz equal 1e-06*yz
change_box all y delta 0 3.17258365834915e-05 yz delta 0 remap units box
Changing box ...
  triclinic box = (0.13708331 0.13708171 0.13704269) to (31.862917 31.86295 31.862957) with tilt (0 0 0)
  triclinic box = (0.13708331 0.13708171 0.13704269) to (31.862917 31.86295 31.862957) with tilt (0 0 0)

# Relax atoms positions

minimize 0 1e-10 100000 100000
Step          Temp          PotEng         Press           Pxx            Pyy            Pzz            Pxy            Pxz            Pyz             Lx             Ly             Lz           Volume
1452   0             -17270.491     -2.9677155     -1.9666782     -4.9465059     -1.9899626      33.609824      15.888567     -39.89627       31.725833      31.725868      31.725915      31933.073
Loop time of 0.0570143 on 8 procs for 54 steps with 2000 atoms

Minimization stats:
  Stopping criterion = force tolerance
  Energy initial, next-to-last, final =
  Force two-norm initial, final = 0.0088858644 9.518131e-11
  Force max component initial, final = 0.00031589843 4.6867982e-12
  Final line search alpha, max atom move = 1 4.6867982e-12
  Iterations, force evaluations = 54 108

# Obtain new stress tensor

variable tmp equal pe
variable e1 equal -17270.4914913711
variable tmp equal press
variable p1 equal -2.96929999865677
variable tmp equal pxx
variable pxx1 equal -1.98244829522273
variable tmp equal pyy
variable pyy1 equal -4.94324781358425
variable tmp equal pzz
variable pzz1 equal -1.98220388716333
variable tmp equal pxy
variable pxy1 equal 33.6151573973019
variable tmp equal pxz
variable pxz1 equal 15.8823978206757
variable tmp equal pyz
variable pyz1 equal -39.8806935758498

# Compute elastic constant from pressure tensor

variable C1pos equal 198.244829677992
variable C2pos equal 494.324781338746
variable C3pos equal 198.220388609169
variable C4pos equal 0.0149902699000393
variable C5pos equal 0.0260648780599837
variable C6pos equal -0.0312790916098038

# Combine positive and negative

variable C12 equal 0.5*(198.246104886483+198.244829677992)
variable C22 equal 0.5*(494.327280046288+494.324781338746)
variable C32 equal 0.5*(198.221663205505+198.220388609169)
variable C42 equal 0.5*(0.0149901900293514+0.0149902699000393)
variable C52 equal 0.5*(0.0260646491000216+0.0260648780599837)
variable C62 equal 0.5*(-0.0312795577499969+-0.0312790916098038)

# Delete dir to make sure it is not reused

variable dir delete

# uzz Perturbation

variable dir equal 3
include displace.mod
# NOTE: This script should not need to be
# modified. See in.elastic for more info.
#
# Find which reference length to use

variable len0 equal 31.7259146282816

# Reset box and simulation parameters

clear
box tilt large

The 'box' command has been removed and will be ignored

read_restart restart.equil
Reading restart file ...
  restart file = 29 Aug 2024, LAMMPS = 29 Aug 2024
  restoring atom style atomic from restart
  triclinic box = (0.13708331 0.13708171 0.13704269) to (31.862917 31.862918 31.862957) with tilt (0 0 0)
  pair style eam/alloy stores no restart info
  2000 atoms
  read_restart CPU = 0.000 seconds
include potential4.mod
# NOTE: This script can be modified for different pair styles
# See in.elastic for more info.

# Choose potential
pair_style	eam/alloy
pair_coeff	* * ../NbMoTaW_Zhou04.eam.alloy Nb Mo Ta W
Reading eam/alloy potential file ../NbMoTaW_Zhou04.eam.alloy with DATE: 2018-03-30

# Setup neighbor style
neighbor 1.0 nsq
neigh_modify once no every 1 delay 0 check yes

# Setup minimization style
min_style	     cg
min_modify	     dmax 0.01 line quadratic

# Setup output
thermo		1
thermo_style custom step temp pe press pxx pyy pzz pxy pxz pyz lx ly lz vol
thermo_modify norm no

# Negative deformation

variable delta equal -1e-06*31.7259146282816
variable deltaxy equal -1e-06*xy
variable deltaxz equal -1e-06*xz
variable deltayz equal -1e-06*yz
change_box all z delta 0 -3.17259146282816e-05 remap units box
Changing box ...
  triclinic box = (0.13708331 0.13708171 0.13704269) to (31.862917 31.862918 31.862926) with tilt (0 0 0)

# Relax atoms positions

minimize 0 1e-10 100000 100000
Step          Temp          PotEng         Press           Pxx            Pyy            Pzz            Pxy            Pxz            Pyz             Lx             Ly             Lz           Volume
1452   0             -17270.491      2.9874273      2.0062316      1.9997334      4.9563169      33.610049      15.888784     -39.89648       31.725833      31.725837      31.725883      31933.009
Loop time of 0.0570724 on 8 procs for 54 steps with 2000 atoms

Minimization stats:
  Stopping criterion = force tolerance
  Energy initial, next-to-last, final =
  Force two-norm initial, final = 0.0088865054 9.19208e-11
  Force max component initial, final = 0.00031610597 4.5793411e-12
  Final line search alpha, max atom move = 1 4.5793411e-12
  Iterations, force evaluations = 54 108

# Obtain new stress tensor

variable tmp equal pxx
variable pxx1 equal 1.98217928096661
variable tmp equal pyy
variable pyy1 equal 1.98221663491633
variable tmp equal pzz
variable pzz1 equal 4.94335160157676
variable tmp equal pxy
variable pxy1 equal 33.6149338700628
variable tmp equal pxz
variable pxz1 equal 15.8825942817325
variable tmp equal pyz
variable pyz1 equal -39.8808092471304

# Compute elastic constant from pressure tensor

variable C1neg equal 198.217927940942
variable C2neg equal 198.221663511312
variable C3neg equal 494.33516026484
variable C4neg equal -0.0265573979604028
variable C5neg equal -0.00641877238010125
variable C6neg equal 0.00892636769975752

# Reset box and simulation parameters

clear
box tilt large

The 'box' command has been removed and will be ignored

read_restart restart.equil
Reading restart file ...
  restart file = 29 Aug 2024, LAMMPS = 29 Aug 2024
  restoring atom style atomic from restart
  triclinic box = (0.13708331 0.13708171 0.13704269) to (31.862917 31.862918 31.862957) with tilt (0 0 0)
  pair style eam/alloy stores no restart info
  2000 atoms
  read_restart CPU = 0.000 seconds
include potential4.mod
# NOTE: This script can be modified for different pair styles
# See in.elastic for more info.

# Choose potential
pair_style	eam/alloy
pair_coeff	* * ../NbMoTaW_Zhou04.eam.alloy Nb Mo Ta W
Reading eam/alloy potential file ../NbMoTaW_Zhou04.eam.alloy with DATE: 2018-03-30

# Setup neighbor style
neighbor 1.0 nsq
neigh_modify once no every 1 delay 0 check yes

# Setup minimization style
min_style	     cg
min_modify	     dmax 0.01 line quadratic

# Setup output
thermo		1
thermo_style custom step temp pe press pxx pyy pzz pxy pxz pyz lx ly lz vol
thermo_modify norm no

# Positive deformation

variable delta equal 1e-06*31.7259146282816
variable deltaxy equal 1e-06*xy
variable deltaxz equal 1e-06*xz
variable deltayz equal 1e-06*yz
change_box all z delta 0 3.17259146282816e-05 remap units box
Changing box ...
  triclinic box = (0.13708331 0.13708171 0.13704269) to (31.862917 31.862918 31.862989) with tilt (0 0 0)

# Relax atoms positions

minimize 0 1e-10 100000 100000
Step          Temp          PotEng         Press           Pxx            Pyy            Pzz            Pxy            Pxz            Pyz             Lx             Ly             Lz           Volume
1452   0             -17270.491     -2.9677527     -1.9667617     -1.9730023     -4.9634941      33.609696      15.888692     -39.896197      31.725833      31.725837      31.725946      31933.073
Loop time of 0.0570506 on 8 procs for 54 steps with 2000 atoms

Minimization stats:
  Stopping criterion = force tolerance
  Energy initial, next-to-last, final =
  Force two-norm initial, final = 0.0088869382 9.8751901e-11
  Force max component initial, final = 0.00031591552 4.8890382e-12
  Final line search alpha, max atom move = 1 4.8890382e-12
  Iterations, force evaluations = 54 108

# Obtain new stress tensor

variable tmp equal pe
variable e1 equal -17270.4914913712
variable tmp equal press
variable p1 equal -2.96923235098755
variable tmp equal pxx
variable pxx1 equal -1.98216651697914
variable tmp equal pyy
variable pyy1 equal -1.98220388337302
variable tmp equal pzz
variable pzz1 equal -4.94332665261047
variable tmp equal pxy
variable pxy1 equal 33.6147553432934
variable tmp equal pxz
variable pxz1 equal 15.8827226546109
variable tmp equal pyz
variable pyz1 equal -39.8802781018118

# Compute elastic constant from pressure tensor

variable C1pos equal 198.216651853633
variable C2pos equal 198.220388317623
variable C3pos equal 494.332665153883
variable C4pos equal -0.0265571338999848
variable C5pos equal -0.00641851545992722
variable C6pos equal 0.00892630923985394

# Combine positive and negative

variable C13 equal 0.5*(198.217927940942+198.216651853633)
variable C23 equal 0.5*(198.221663511312+198.220388317623)
variable C33 equal 0.5*(494.33516026484+494.332665153883)
variable C43 equal 0.5*(-0.0265573979604028+-0.0265571338999848)
variable C53 equal 0.5*(-0.00641877238010125+-0.00641851545992722)
variable C63 equal 0.5*(0.00892636769975752+0.00892630923985394)

# Delete dir to make sure it is not reused

variable dir delete

# uyz Perturbation

variable dir equal 4
include displace.mod
# NOTE: This script should not need to be
# modified. See in.elastic for more info.
#
# Find which reference length to use

variable len0 equal 31.7259146282816

# Reset box and simulation parameters

clear
box tilt large

The 'box' command has been removed and will be ignored

read_restart restart.equil
Reading restart file ...
  restart file = 29 Aug 2024, LAMMPS = 29 Aug 2024
  restoring atom style atomic from restart
  triclinic box = (0.13708331 0.13708171 0.13704269) to (31.862917 31.862918 31.862957) with tilt (0 0 0)
  pair style eam/alloy stores no restart info
  2000 atoms
  read_restart CPU = 0.000 seconds
include potential4.mod
# NOTE: This script can be modified for different pair styles
# See in.elastic for more info.

# Choose potential
pair_style	eam/alloy
pair_coeff	* * ../NbMoTaW_Zhou04.eam.alloy Nb Mo Ta W
Reading eam/alloy potential file ../NbMoTaW_Zhou04.eam.alloy with DATE: 2018-03-30

# Setup neighbor style
neighbor 1.0 nsq
neigh_modify once no every 1 delay 0 check yes

# Setup minimization style
min_style	     cg
min_modify	     dmax 0.01 line quadratic

# Setup output
thermo		1
thermo_style custom step temp pe press pxx pyy pzz pxy pxz pyz lx ly lz vol
thermo_modify norm no

# Negative deformation

variable delta equal -1e-06*31.7259146282816
variable deltaxy equal -1e-06*xy
variable deltaxz equal -1e-06*xz
variable deltayz equal -1e-06*yz
change_box all yz delta -3.17259146282816e-05 remap units box
Changing box ...
  triclinic box = (0.13708331 0.13708171 0.13704269) to (31.862917 31.862918 31.862957) with tilt (0 0 -3.1725915e-05)

# Relax atoms positions

minimize 0 1e-10 100000 100000
Step          Temp          PotEng         Press           Pxx            Pyy            Pzz            Pxy            Pxz            Pyz             Lx             Ly             Lz           Volume
1452   0             -17270.491      0.0097700912   0.019680595    0.013370716   -0.0037410371   33.609928      15.888896     -38.39264       31.725833      31.725837      31.725915      31933.041
Loop time of 0.0569996 on 8 procs for 54 steps with 2000 atoms

Minimization stats:
  Stopping criterion = force tolerance
  Energy initial, next-to-last, final =
  Force two-norm initial, final = 0.0088856231 9.5187849e-11
  Force max component initial, final = 0.0003160519 4.7311589e-12
  Final line search alpha, max atom move = 1 4.7311589e-12
  Iterations, force evaluations = 54 108

# Obtain new stress tensor

variable tmp equal pxx
variable pxx1 equal 1.83250415900808e-05
variable tmp equal pyy
variable pyy1 equal 0.000229721552096855
variable tmp equal pzz
variable pzz1 equal -0.000264000463388981
variable tmp equal pxy
variable pxy1 equal 33.6147641090444
variable tmp equal pxz
variable pxz1 equal 15.8828312981834
variable tmp equal pyz
variable pyz1 equal -38.3833413506952

# Compute elastic constant from pressure tensor

variable C1neg equal 0.00183234843953784
variable C2neg equal 0.0229721748885197
variable C3neg equal -0.0263999391748121
variable C4neg equal 149.72023224556
variable C5neg equal 0.0172828727098562
variable C6neg equal -0.00804973414005872

# Reset box and simulation parameters

clear
box tilt large

The 'box' command has been removed and will be ignored

read_restart restart.equil
Reading restart file ...
  restart file = 29 Aug 2024, LAMMPS = 29 Aug 2024
  restoring atom style atomic from restart
  triclinic box = (0.13708331 0.13708171 0.13704269) to (31.862917 31.862918 31.862957) with tilt (0 0 0)
  pair style eam/alloy stores no restart info
  2000 atoms
  read_restart CPU = 0.000 seconds
include potential4.mod
# NOTE: This script can be modified for different pair styles
# See in.elastic for more info.

# Choose potential
pair_style	eam/alloy
pair_coeff	* * ../NbMoTaW_Zhou04.eam.alloy Nb Mo Ta W
Reading eam/alloy potential file ../NbMoTaW_Zhou04.eam.alloy with DATE: 2018-03-30

# Setup neighbor style
neighbor 1.0 nsq
neigh_modify once no every 1 delay 0 check yes

# Setup minimization style
min_style	     cg
min_modify	     dmax 0.01 line quadratic

# Setup output
thermo		1
thermo_style custom step temp pe press pxx pyy pzz pxy pxz pyz lx ly lz vol
thermo_modify norm no

# Positive deformation

variable delta equal 1e-06*31.7259146282816
variable deltaxy equal 1e-06*xy
variable deltaxz equal 1e-06*xz
variable deltayz equal 1e-06*yz
change_box all yz delta 3.17259146282816e-05 remap units box
Changing box ...
  triclinic box = (0.13708331 0.13708171 0.13704269) to (31.862917 31.862918 31.862957) with tilt (0 0 3.1725915e-05)

# Relax atoms positions

minimize 0 1e-10 100000 100000
Step          Temp          PotEng         Press           Pxx            Pyy            Pzz            Pxy            Pxz            Pyz             Lx             Ly             Lz           Volume
1452   0             -17270.491      0.0098908882   0.019782944    0.013347747   -0.003458027    33.609817      15.88858      -41.400037      31.725833      31.725837      31.725915      31933.041
Loop time of 0.0569148 on 8 procs for 54 steps with 2000 atoms

Minimization stats:
  Stopping criterion = force tolerance
  Energy initial, next-to-last, final =
  Force two-norm initial, final = 0.0088875193 9.495552e-11
  Force max component initial, final = 0.00031596959 4.7522884e-12
  Final line search alpha, max atom move = 1 4.7522884e-12
  Iterations, force evaluations = 54 108

# Obtain new stress tensor

variable tmp equal pe
variable e1 equal -17270.4914906106
variable tmp equal press
variable p1 equal 8.53589656790256e-06
variable tmp equal pxx
variable pxx1 equal -1.19321897876454e-05
variable tmp equal pyy
variable pyy1 equal -0.000229605033434644
variable tmp equal pzz
variable pzz1 equal 0.000267144912925997
variable tmp equal pxy
variable pxy1 equal 33.61492510187
variable tmp equal pxz
variable pxz1 equal 15.8824856387678
variable tmp equal pyz
variable pyz1 equal -41.3777459974527

# Compute elastic constant from pressure tensor

variable C1pos equal 0.00119337469823478
variable C2pos equal 0.0229604836646303
variable C3pos equal -0.0267145984566857
variable C4pos equal 149.72023243019
variable C5pos equal 0.017283068850027
variable C6pos equal -0.00804954841981953

# Combine positive and negative

variable C14 equal 0.5*(0.00183234843953784+0.00119337469823478)
variable C24 equal 0.5*(0.0229721748885197+0.0229604836646303)
variable C34 equal 0.5*(-0.0263999391748121+-0.0267145984566857)
variable C44 equal 0.5*(149.72023224556+149.72023243019)
variable C54 equal 0.5*(0.0172828727098562+0.017283068850027)
variable C64 equal 0.5*(-0.00804973414005872+-0.00804954841981953)

# Delete dir to make sure it is not reused

variable dir delete

# uxz Perturbation

variable dir equal 5
include displace.mod
# NOTE: This script should not need to be
# modified. See in.elastic for more info.
#
# Find which reference length to use

variable len0 equal 31.7259146282816

# Reset box and simulation parameters

clear
box tilt large

The 'box' command has been removed and will be ignored

read_restart restart.equil
Reading restart file ...
  restart file = 29 Aug 2024, LAMMPS = 29 Aug 2024
  restoring atom style atomic from restart
  triclinic box = (0.13708331 0.13708171 0.13704269) to (31.862917 31.862918 31.862957) with tilt (0 0 0)
  pair style eam/alloy stores no restart info
  2000 atoms
  read_restart CPU = 0.000 seconds
include potential4.mod
# NOTE: This script can be modified for different pair styles
# See in.elastic for more info.

# Choose potential
pair_style	eam/alloy
pair_coeff	* * ../NbMoTaW_Zhou04.eam.alloy Nb Mo Ta W
Reading eam/alloy potential file ../NbMoTaW_Zhou04.eam.alloy with DATE: 2018-03-30

# Setup neighbor style
neighbor 1.0 nsq
neigh_modify once no every 1 delay 0 check yes

# Setup minimization style
min_style	     cg
min_modify	     dmax 0.01 line quadratic

# Setup output
thermo		1
thermo_style custom step temp pe press pxx pyy pzz pxy pxz pyz lx ly lz vol
thermo_modify norm no

# Negative deformation

variable delta equal -1e-06*31.7259146282816
variable deltaxy equal -1e-06*xy
variable deltaxz equal -1e-06*xz
variable deltayz equal -1e-06*yz
change_box all xz delta -3.17259146282816e-05 remap units box
Changing box ...
  triclinic box = (0.13708331 0.13708171 0.13704269) to (31.862917 31.862918 31.862957) with tilt (0 -3.1725915e-05 0)

# Relax atoms positions

minimize 0 1e-10 100000 100000
Step          Temp          PotEng         Press           Pxx            Pyy            Pzz            Pxy            Pxz            Pyz             Lx             Ly             Lz           Volume
1452   0             -17270.491      0.0099024621   0.019743141    0.013517927   -0.0035536816   33.609834      17.392558     -39.89618       31.725833      31.725837      31.725915      31933.041
Loop time of 0.0574953 on 8 procs for 54 steps with 2000 atoms

Minimization stats:
  Stopping criterion = force tolerance
  Energy initial, next-to-last, final =
  Force two-norm initial, final = 0.0088865652 9.518388e-11
  Force max component initial, final = 0.00031588344 4.73995e-12
  Final line search alpha, max atom move = 1 4.73995e-12
  Iterations, force evaluations = 54 108

# Obtain new stress tensor

variable tmp equal pxx
variable pxx1 equal -0.000151451741443994
variable tmp equal pyy
variable pyy1 equal 0.000247958091695346
variable tmp equal pzz
variable pzz1 equal -6.26124453673834e-05
variable tmp equal pxy
variable pxy1 equal 33.6149021055952
variable tmp equal pxz
variable pxz1 equal 17.3802076653113
variable tmp equal pyz
variable pyz1 equal -39.880370844059

# Compute elastic constant from pressure tensor

variable C1neg equal -0.0151453298638696
variable C2neg equal 0.0247958288483688
variable C3neg equal -0.00626113737265236
variable C4neg equal 0.0172829091795279
variable C5neg equal 149.7549195855
variable C6neg equal 0.00574992093973492

# Reset box and simulation parameters

clear
box tilt large

The 'box' command has been removed and will be ignored

read_restart restart.equil
Reading restart file ...
  restart file = 29 Aug 2024, LAMMPS = 29 Aug 2024
  restoring atom style atomic from restart
  triclinic box = (0.13708331 0.13708171 0.13704269) to (31.862917 31.862918 31.862957) with tilt (0 0 0)
  pair style eam/alloy stores no restart info
  2000 atoms
  read_restart CPU = 0.000 seconds
include potential4.mod
# NOTE: This script can be modified for different pair styles
# See in.elastic for more info.

# Choose potential
pair_style	eam/alloy
pair_coeff	* * ../NbMoTaW_Zhou04.eam.alloy Nb Mo Ta W
Reading eam/alloy potential file ../NbMoTaW_Zhou04.eam.alloy with DATE: 2018-03-30

# Setup neighbor style
neighbor 1.0 nsq
neigh_modify once no every 1 delay 0 check yes

# Setup minimization style
min_style	     cg
min_modify	     dmax 0.01 line quadratic

# Setup output
thermo		1
thermo_style custom step temp pe press pxx pyy pzz pxy pxz pyz lx ly lz vol
thermo_modify norm no

# Positive deformation

variable delta equal 1e-06*31.7259146282816
variable deltaxy equal 1e-06*xy
variable deltaxz equal 1e-06*xz
variable deltayz equal 1e-06*yz
change_box all xz delta 3.17259146282816e-05 remap units box
Changing box ...
  triclinic box = (0.13708331 0.13708171 0.13704269) to (31.862917 31.862918 31.862957) with tilt (0 3.1725915e-05 0)

# Relax atoms positions

minimize 0 1e-10 100000 100000
Step          Temp          PotEng         Press           Pxx            Pyy            Pzz            Pxy            Pxz            Pyz             Lx             Ly             Lz           Volume
1452   0             -17270.491      0.0097585187   0.0197141      0.013206836   -0.0036453804   33.609911      14.384919     -39.896496      31.725833      31.725837      31.725915      31933.041
Loop time of 0.0569354 on 8 procs for 54 steps with 2000 atoms

Minimization stats:
  Stopping criterion = force tolerance
  Energy initial, next-to-last, final =
  Force two-norm initial, final = 0.0088865754 9.4943102e-11
  Force max component initial, final = 0.00031613805 4.6769305e-12
  Final line search alpha, max atom move = 1 4.6769305e-12
  Iterations, force evaluations = 54 108

# Obtain new stress tensor

variable tmp equal pe
variable e1 equal -17270.4914917221
variable tmp equal press
variable p1 equal -8.07770010739499e-06
variable tmp equal pxx
variable pxx1 equal 0.000151578307719642
variable tmp equal pyy
variable pyy1 equal -0.000241571872230421
variable tmp equal pzz
variable pzz1 equal 6.57604641885933e-05
variable tmp equal pxy
variable pxy1 equal 33.6147871056442
variable tmp equal pxz
variable pxz1 equal 14.3851092717244
variable tmp equal pyz
variable pyz1 equal -39.8807165035347

# Compute elastic constant from pressure tensor

variable C1pos equal -0.015157675052494
variable C2pos equal 0.024157167544208
variable C3pos equal -0.00657615358294531
variable C4pos equal 0.0172830383903033
variable C5pos equal 149.75491977319
variable C6pos equal 0.00575007416045992

# Combine positive and negative

variable C15 equal 0.5*(-0.0151453298638696+-0.015157675052494)
variable C25 equal 0.5*(0.0247958288483688+0.024157167544208)
variable C35 equal 0.5*(-0.00626113737265236+-0.00657615358294531)
variable C45 equal 0.5*(0.0172829091795279+0.0172830383903033)
variable C55 equal 0.5*(149.7549195855+149.75491977319)
variable C65 equal 0.5*(0.00574992093973492+0.00575007416045992)

# Delete dir to make sure it is not reused

variable dir delete

# uxy Perturbation

variable dir equal 6
include displace.mod
# NOTE: This script should not need to be
# modified. See in.elastic for more info.
#
# Find which reference length to use

variable len0 equal 31.7258365834915

# Reset box and simulation parameters

clear
box tilt large

The 'box' command has been removed and will be ignored

read_restart restart.equil
Reading restart file ...
  restart file = 29 Aug 2024, LAMMPS = 29 Aug 2024
  restoring atom style atomic from restart
  triclinic box = (0.13708331 0.13708171 0.13704269) to (31.862917 31.862918 31.862957) with tilt (0 0 0)
  pair style eam/alloy stores no restart info
  2000 atoms
  read_restart CPU = 0.000 seconds
include potential4.mod
# NOTE: This script can be modified for different pair styles
# See in.elastic for more info.

# Choose potential
pair_style	eam/alloy
pair_coeff	* * ../NbMoTaW_Zhou04.eam.alloy Nb Mo Ta W
Reading eam/alloy potential file ../NbMoTaW_Zhou04.eam.alloy with DATE: 2018-03-30

# Setup neighbor style
neighbor 1.0 nsq
neigh_modify once no every 1 delay 0 check yes

# Setup minimization style
min_style	     cg
min_modify	     dmax 0.01 line quadratic

# Setup output
thermo		1
thermo_style custom step temp pe press pxx pyy pzz pxy pxz pyz lx ly lz vol
thermo_modify norm no

# Negative deformation

variable delta equal -1e-06*31.7258365834915
variable deltaxy equal -1e-06*xy
variable deltaxz equal -1e-06*xz
variable deltayz equal -1e-06*yz
change_box all xy delta -3.17258365834915e-05 remap units box
Changing box ...
  triclinic box = (0.13708331 0.13708171 0.13704269) to (31.862917 31.862918 31.862957) with tilt (-3.1725837e-05 0 0)

# Relax atoms positions

minimize 0 1e-10 100000 100000
Step          Temp          PotEng         Press           Pxx            Pyy            Pzz            Pxy            Pxz            Pyz             Lx             Ly             Lz           Volume
1452   0             -17270.491      0.0098842637   0.019698485    0.013409275   -0.0034549682   35.113584      15.8887       -39.896267      31.725833      31.725837      31.725915      31933.041
Loop time of 0.0570259 on 8 procs for 54 steps with 2000 atoms

Minimization stats:
  Stopping criterion = force tolerance
  Energy initial, next-to-last, final =
  Force two-norm initial, final = 0.0088865552 9.5079127e-11
  Force max component initial, final = 0.00031590068 4.7122219e-12
  Final line search alpha, max atom move = 1 4.7122219e-12
  Iterations, force evaluations = 54 108

# Obtain new stress tensor

variable tmp equal pxx
variable pxx1 equal -0.000331454034575867
variable tmp equal pyy
variable pyy1 equal -0.000311220612375899
variable tmp equal pzz
variable pzz1 equal 5.88409048250866e-05
variable tmp equal pxy
variable pxy1 equal 35.1121410210204
variable tmp equal pxz
variable pxz1 equal 15.8827159682784
variable tmp equal pyz
variable pyz1 equal -39.8806082874538

# Compute elastic constant from pressure tensor

variable C1neg equal -0.033145559177057
variable C2neg equal -0.0311220415587557
variable C3neg equal 0.00588419764659464
variable C4neg equal -0.00646143030067492
variable C5neg equal 0.00574988221000439
variable C6neg equal 149.72964146346

# Reset box and simulation parameters

clear
box tilt large

The 'box' command has been removed and will be ignored

read_restart restart.equil
Reading restart file ...
  restart file = 29 Aug 2024, LAMMPS = 29 Aug 2024
  restoring atom style atomic from restart
  triclinic box = (0.13708331 0.13708171 0.13704269) to (31.862917 31.862918 31.862957) with tilt (0 0 0)
  pair style eam/alloy stores no restart info
  2000 atoms
  read_restart CPU = 0.000 seconds
include potential4.mod
# NOTE: This script can be modified for different pair styles
# See in.elastic for more info.

# Choose potential
pair_style	eam/alloy
pair_coeff	* * ../NbMoTaW_Zhou04.eam.alloy Nb Mo Ta W
Reading eam/alloy potential file ../NbMoTaW_Zhou04.eam.alloy with DATE: 2018-03-30

# Setup neighbor style
neighbor 1.0 nsq
neigh_modify once no every 1 delay 0 check yes

# Setup minimization style
min_style	     cg
min_modify	     dmax 0.01 line quadratic

# Setup output
thermo		1
thermo_style custom step temp pe press pxx pyy pzz pxy pxz pyz lx ly lz vol
thermo_modify norm no

# Positive deformation

variable delta equal 1e-06*31.7258365834915
variable deltaxy equal 1e-06*xy
variable deltaxz equal 1e-06*xz
variable deltayz equal 1e-06*yz
change_box all xy delta 3.17258365834915e-05 remap units box
Changing box ...
  triclinic box = (0.13708331 0.13708171 0.13704269) to (31.862917 31.862918 31.862957) with tilt (3.1725837e-05 0 0)

# Relax atoms positions

minimize 0 1e-10 100000 100000
Step          Temp          PotEng         Press           Pxx            Pyy            Pzz            Pxy            Pxz            Pyz             Lx             Ly             Lz           Volume
1452   0             -17270.491      0.0097767158   0.019758755    0.01331223    -0.0037408373   32.106161      15.888776     -39.89641       31.725833      31.725837      31.725915      31933.041
Loop time of 0.0569643 on 8 procs for 54 steps with 2000 atoms

Minimization stats:
  Stopping criterion = force tolerance
  Energy initial, next-to-last, final =
  Force two-norm initial, final = 0.0088865866 9.501464e-11
  Force max component initial, final = 0.00031612081 4.7649973e-12
  Final line search alpha, max atom move = 1 4.7649973e-12
  Iterations, force evaluations = 54 108

# Obtain new stress tensor

variable tmp equal pe
variable e1 equal -17270.4914920755
variable tmp equal press
variable p1 equal 0.000197829358021077
variable tmp equal pxx
variable pxx1 equal 0.000331578812644412
variable tmp equal pyy
variable pyy1 equal 0.000314365642295921
variable tmp equal pzz
variable pzz1 equal -5.24563808771037e-05
variable tmp equal pxy
variable pxy1 equal 32.1175481910007
variable tmp equal pxz
variable pxz1 equal 15.8826009683983
variable tmp equal pyz
variable pyz1 equal -39.8804790598641

# Compute elastic constant from pressure tensor

variable C1pos equal -0.033157725544971
variable C2pos equal -0.0314365839084263
variable C3pos equal 0.00524553092362439
variable C4pos equal -0.0064613286696158
variable C5pos equal 0.00575010580003976
variable C6pos equal 149.72964153851

# Combine positive and negative

variable C16 equal 0.5*(-0.033145559177057+-0.033157725544971)
variable C26 equal 0.5*(-0.0311220415587557+-0.0314365839084263)
variable C36 equal 0.5*(0.00588419764659464+0.00524553092362439)
variable C46 equal 0.5*(-0.00646143030067492+-0.0064613286696158)
variable C56 equal 0.5*(0.00574988221000439+0.00575010580003976)
variable C66 equal 0.5*(149.72964146346+149.72964153851)

# Delete dir to make sure it is not reused

variable dir delete

# Output final values

variable C11all equal 494.332068172596
variable C22all equal 494.326030692517
variable C33all equal 494.333912709361

variable C12all equal 0.5*(198.245467282237+198.245467290651)
variable C13all equal 0.5*(198.217289897288+198.217289915682)
variable C23all equal 0.5*(198.221025914467+198.221025907337)

variable C44all equal 149.720232337875
variable C55all equal 149.754919679345
variable C66all equal 149.729641500985

variable C14all equal 0.5*(0.00151286156888631+-0.00247518643021749)
variable C15all equal 0.5*(-0.0151515024581818+-0.0119749666249724)
variable C16all equal 0.5*(-0.033151642361014+-0.0264286703799854)

variable C24all equal 0.5*(0.022966329276575+0.0149902299646954)
variable C25all equal 0.5*(0.0244764981962884+0.0260647635800027)
variable C26all equal 0.5*(-0.031279312733591+-0.0312793246799003)

variable C34all equal 0.5*(-0.0265572688157489+-0.0265572659301938)
variable C35all equal 0.5*(-0.00641864547779883+-0.00641864392001423)
variable C36all equal 0.5*(0.00556486428510952+0.00892633846980573)

variable C45all equal 0.5*(0.0172829737849156+0.0172829707799416)
variable C46all equal 0.5*(-0.00646137948514536+-0.00804964127993912)
variable C56all equal 0.5*(0.00574999400502208+0.00574999755009742)

# Average moduli for cubic crystals

variable C11cubic equal (494.332068172596+494.326030692517+494.333912709361)/3.0
variable C12cubic equal (198.245467286444+198.217289906485+198.221025910902)/3.0
variable C44cubic equal (149.720232337875+149.754919679345+149.729641500985)/3.0

variable bulkmodulus equal (494.330670524825+2*198.227927701277)/3.0
variable	shearmodulus1 equal 149.729641500985
variable 	shearmodulus2 equal (494.330670524825-198.227927701277)/2.0
# variable	poissonratio equal
variable poissonratio equal 1.0/(1.0+494.330670524825/198.227927701277)

# For Stillinger-Weber silicon, the analytical results
# are known to be (E. R. Cowley, 1988):
#               C11 = 151.4 GPa
#               C12 = 76.4 GPa
#               C44 = 56.4 GPa

print "=========================================" append output4.txt
=========================================
print "Components of the Elastic Constant Tensor" append output4.txt
Components of the Elastic Constant Tensor
print "=========================================" append output4.txt
=========================================
Prop: 0.90

Elastic Constant C11all = 494.332068172596 GPa
Elastic Constant C22all = 494.326030692517 GPa
Elastic Constant C33all = 494.333912709361 GPa

Elastic Constant C12all = 198.245467286444 GPa
Elastic Constant C13all = 198.217289906485 GPa
Elastic Constant C23all = 198.221025910902 GPa

Elastic Constant C44all = 149.720232337875 GPa
Elastic Constant C55all = 149.754919679345 GPa
Elastic Constant C66all = 149.729641500985 GPa

Elastic Constant C14all = -0.00048116243066559 GPa
Elastic Constant C15all = -0.0135632345415771 GPa
Elastic Constant C16all = -0.0297901563704997 GPa

Elastic Constant C24all = 0.0189782796206352 GPa
Elastic Constant C25all = 0.0252706308881456 GPa
Elastic Constant C26all = -0.0312793187067456 GPa

Elastic Constant C34all = -0.0265572673729714 GPa
Elastic Constant C35all = -0.00641864469890653 GPa
Elastic Constant C36all = 0.00724560137745763 GPa

Elastic Constant C45all = 0.0172829722824286 GPa
Elastic Constant C46all = -0.00725551038254224 GPa
Elastic Constant C56all = 0.00574999577755975 GPa

print "=========================================" append output4.txt
=========================================
print "Average properties for a cubic crystal" append output4.txt
Average properties for a cubic crystal
print "=========================================" append output4.txt
=========================================

Bulk Modulus = 296.928841975793 GPa
Shear Modulus 1 = 149.729641500985 GPa
Shear Modulus 2 = 148.051371411774 GPa
Poisson Ratio = 0.286225495155228
